/*--------------------------------*- C++ -*----------------------------------*\
  =========                 |
  \\      /  F ield         | OpenFOAM: The Open Source CFD Toolbox
   \\    /   O peration     | Website:  https://openfoam.org
    \\  /    A nd           | Version:  7
     \\/     M anipulation  |
\*---------------------------------------------------------------------------*/
FoamFile
{
    version     2.0;
    format      binary;
    class       polyBoundaryMesh;
    location    "constant/polyMesh";
    object      boundary;
}
// * * * * * * * * * * * * * * * * * * * * * * * * * * * * * * * * * * * * * //

5
(
    leftWall
    {
        type            patch;
        nFaces          60;
        startFace       5146;
    }
    rightWall
    {
        type            patch;
        nFaces          60;
        startFace       5206;
    }
    lowerWall
    {
        type            wall;
        inGroups        List<word> 1(wall);
        nFaces          104;
        startFace       5266;
    }
    atmosphere
    {
        type            wall;
        inGroups        List<word> 1(wall);
        nFaces          44;
        startFace       5370;
    }
    defaultFaces
    {
        type            empty;
        inGroups        List<word> 1(empty);
        nFaces          5280;
        startFace       5414;
    }
)

// ************************************************************************* //
